/*--------------------------------*- C++ -*----------------------------------*\
| =========                 |                                                 |
| \\      /  F ield         | OpenFOAM: The Open Source CFD Toolbox           |
|  \\    /   O peration     | Version:  v1712                                 |
|   \\  /    A nd           | Web:      www.OpenFOAM.com                      |
|    \\/     M anipulation  |                                                 |
\*---------------------------------------------------------------------------*/
FoamFile
{
    version     2.0;
    format      ascii;
    class       polyBoundaryMesh;
    location    "constant/polyMesh";
    object      boundary;
}
// * * * * * * * * * * * * * * * * * * * * * * * * * * * * * * * * * * * * * //

6
(
    leftWall
    {
        type            wall;
        inGroups        1(wall);
        nFaces          26;
        startFace       2188;
    }
    rightWall
    {
        type            wall;
        inGroups        1(wall);
        nFaces          25;
        startFace       2214;
    }
    lowerWall
    {
        type            wall;
        inGroups        1(wall);
        nFaces          62;
        startFace       2239;
    }
    atmosphere
    {
        type            patch;
        nFaces          0;
        startFace       2301;
    }
    defaultFaces
    {
        type            empty;
        inGroups        1(empty);
        nFaces          2268;
        startFace       2301;
    }
    procBoundary0to1
    {
        type            processor;
        inGroups        1(processor);
        nFaces          47;
        startFace       4569;
        matchTolerance  0.0001;
        transform       unknown;
        myProcNo        0;
        neighbProcNo    1;
    }
)

// ************************************************************************* //
